
 OpenBabel10122400033D

 40 44  0  0  0  0  0  0  0  0999 V2000
   15.8270   54.7150   12.3910 C   0  0  0  0  0  0  0  0  0  0  0  0
   16.8940   54.5750   11.3930 C   0  0  0  0  0  0  0  0  0  0  0  0
   17.8820   53.5560   11.5970 C   0  0  0  0  0  3  0  0  0  0  0  0
   17.8240   52.6930   12.7510 C   0  0  0  0  0  3  0  0  0  0  0  0
   16.7880   52.8250   13.7210 C   0  0  0  0  0  0  0  0  0  0  0  0
   15.7830   53.8580   13.5210 C   0  0  0  0  0  3  0  0  0  0  0  0
   17.0030   55.4660   10.1340 C   0  0  0  0  0  1  0  0  0  0  0  0
   14.8380   55.6910   12.2500 N   0  0  0  0  0  0  0  0  0  0  0  0
   13.9120   55.4270   11.8830 H   0  0  0  0  0  0  0  0  0  0  0  0
   14.2600   59.2380   12.7460 C   0  0  0  0  0  0  0  0  0  0  0  0
   15.5180   59.6960   13.2620 C   0  0  0  0  0  3  0  0  0  0  0  0
   16.5410   58.7360   13.4250 C   0  0  0  0  0  3  0  0  0  0  0  0
   16.3120   57.4170   13.0920 N   0  0  0  0  0  0  0  0  0  0  0  0
   15.0860   57.0090   12.5980 C   0  0  0  0  0  0  0  0  0  0  0  0
   14.0930   57.9070   12.4350 N   0  0  0  0  0  4  0  0  0  0  0  0
   11.8150   62.2900   12.8400 C   0  0  0  0  0  3  0  0  0  0  0  0
   12.9730   61.4660   13.0960 C   0  0  0  0  0  3  0  0  0  0  0  0
   13.0830   60.1340   12.5140 C   0  0  0  0  0  0  0  0  0  0  0  0
   11.9940   59.6630   11.6720 C   0  0  0  0  0  3  0  0  0  0  0  0
   10.8900   60.4790   11.4440 N   0  0  0  0  0  0  0  0  0  0  0  0
   10.7730   61.7610   12.0010 C   0  0  0  0  0  3  0  0  0  0  0  0
   16.7900   51.9200   14.8440 N   0  0  0  0  0  0  0  0  0  0  0  0
   15.7950   51.7340   15.7890 C   0  0  0  0  0  0  0  0  0  0  0  0
   14.8340   52.4730   15.9360 O   0  0  0  0  0  0  0  0  0  0  0  0
   17.6350   51.3430   14.9570 H   0  0  0  0  0  0  0  0  0  0  0  0
   15.8880   50.5630   16.7140 C   0  0  0  0  0  0  0  0  0  0  0  0
   17.1610   49.8750   16.9420 C   0  0  0  0  0  3  0  0  0  0  0  0
   17.2200   48.7380   17.8270 C   0  0  0  0  0  3  0  0  0  0  0  0
   16.0010   48.2830   18.4910 C   0  0  0  0  0  0  0  0  0  0  0  0
   14.7520   48.9880   18.2500 C   0  0  0  0  0  3  0  0  0  0  0  0
   14.6910   50.1010   17.3830 C   0  0  0  0  0  3  0  0  0  0  0  0
   15.9660   47.0660   19.4340 C   0  0  0  0  0  2  0  0  0  0  0  0
   17.2100   46.7600   20.2010 N   0  0  0  0  0  0  0  0  0  0  0  0
   17.4490   47.8050   21.2640 C   0  0  0  0  0  2  0  0  0  0  0  0
   18.7520   47.5160   22.0610 C   0  0  0  0  0  2  0  0  0  0  0  0
   18.7100   46.1260   22.6810 N   0  0  0  0  0  4  0  0  0  0  0  0
   19.9190   45.8030   23.4540 C   0  0  0  0  0  1  0  0  0  0  0  0
   18.4860   45.0540   21.6140 C   0  0  0  0  0  2  0  0  0  0  0  0
   17.1670   45.3670   20.8340 C   0  0  0  0  0  2  0  0  0  0  0  0
   17.9160   46.1350   23.3360 H   0  0  0  0  0  0  0  0  0  0  0  0
  1  6  1  0  0  0  0
  2  3  1  0  0  0  0
  2  1  2  0  0  0  0
  3  4  2  0  0  0  0
  4  5  1  0  0  0  0
  5 22  1  0  0  0  0
  6  5  2  0  0  0  0
  7  2  1  0  0  0  0
  8  1  1  0  0  0  0
  8 14  1  0  0  0  0
  9  8  1  0  0  0  0
 10 11  1  0  0  0  0
 11 12  2  0  0  0  0
 13 12  1  0  0  0  0
 14 13  2  0  0  0  0
 15 14  2  0  0  0  0
 15 10  2  0  0  0  0
 16 17  1  0  0  0  0
 18 10  1  0  0  0  0
 18 17  2  0  0  0  0
 19 18  1  0  0  0  0
 20 19  2  0  0  0  0
 20 21  1  0  0  0  0
 21 16  2  0  0  0  0
 22 25  1  0  0  0  0
 22 23  1  0  0  0  0
 23 24  2  0  0  0  0
 23 26  1  0  0  0  0
 26 27  2  0  0  0  0
 26 31  1  0  0  0  0
 27 28  1  0  0  0  0
 28 29  2  0  0  0  0
 29 32  1  0  0  0  0
 30 29  1  0  0  0  0
 31 30  2  0  0  0  0
 32 33  1  0  0  0  0
 33 39  1  0  0  0  0
 33 34  1  0  0  0  0
 34 35  1  0  0  0  0
 35 36  1  0  0  0  0
 36 40  1  0  0  0  0
 36 37  1  0  0  0  0
 38 36  1  0  0  0  0
 39 38  1  0  0  0  0
M  END
>  <minimizedAffinity>
-13.8796644

$$$$

 OpenBabel10122400033D

 40 44  0  0  0  0  0  0  0  0999 V2000
   15.6910   54.6920   12.6440 C   0  0  0  0  0  0  0  0  0  0  0  0
   16.7430   54.4690   11.6460 C   0  0  0  0  0  0  0  0  0  0  0  0
   17.6970   53.4250   11.8890 C   0  0  0  0  0  3  0  0  0  0  0  0
   17.6180   52.6180   13.0810 C   0  0  0  0  0  3  0  0  0  0  0  0
   16.5960   52.8300   14.0510 C   0  0  0  0  0  0  0  0  0  0  0  0
   15.6260   53.8890   13.8120 C   0  0  0  0  0  3  0  0  0  0  0  0
   16.8730   55.2980   10.3470 C   0  0  0  0  0  1  0  0  0  0  0  0
   14.7350   55.6950   12.4660 N   0  0  0  0  0  0  0  0  0  0  0  0
   13.7910   55.4460   12.1370 H   0  0  0  0  0  0  0  0  0  0  0  0
   14.3030   59.2850   12.7540 C   0  0  0  0  0  0  0  0  0  0  0  0
   15.5910   59.7250   13.2110 C   0  0  0  0  0  3  0  0  0  0  0  0
   16.5810   58.7370   13.4090 C   0  0  0  0  0  3  0  0  0  0  0  0
   16.2950   57.4110   13.1640 N   0  0  0  0  0  0  0  0  0  0  0  0
   15.0420   57.0210   12.7250 C   0  0  0  0  0  0  0  0  0  0  0  0
   14.0790   57.9450   12.5300 N   0  0  0  0  0  4  0  0  0  0  0  0
   10.8780   60.7380   11.5460 C   0  0  0  0  0  3  0  0  0  0  0  0
   11.9570   59.8040   11.7700 C   0  0  0  0  0  3  0  0  0  0  0  0
   13.1550   60.2110   12.4940 C   0  0  0  0  0  0  0  0  0  0  0  0
   13.2290   61.5790   12.9830 C   0  0  0  0  0  3  0  0  0  0  0  0
   12.1730   62.4560   12.7520 N   0  0  0  0  0  0  0  0  0  0  0  0
   11.0170   62.0770   12.0540 C   0  0  0  0  0  3  0  0  0  0  0  0
   16.5750   51.9770   15.2130 N   0  0  0  0  0  0  0  0  0  0  0  0
   15.6990   50.9410   15.4940 C   0  0  0  0  0  0  0  0  0  0  0  0
   14.6630   50.7270   14.8840 O   0  0  0  0  0  0  0  0  0  0  0  0
   17.3000   52.1610   15.9210 H   0  0  0  0  0  0  0  0  0  0  0  0
   16.0140   50.0170   16.6270 C   0  0  0  0  0  0  0  0  0  0  0  0
   14.9640   49.2300   17.2780 C   0  0  0  0  0  3  0  0  0  0  0  0
   15.2920   48.3590   18.3790 C   0  0  0  0  0  3  0  0  0  0  0  0
   16.6780   48.2700   18.8340 C   0  0  0  0  0  0  0  0  0  0  0  0
   17.7000   49.0580   18.1650 C   0  0  0  0  0  3  0  0  0  0  0  0
   17.3810   49.9140   17.0870 C   0  0  0  0  0  3  0  0  0  0  0  0
   17.1150   47.3830   20.0140 C   0  0  0  0  0  2  0  0  0  0  0  0
   18.5630   47.0290   20.1040 N   0  0  0  0  0  0  0  0  0  0  0  0
   19.1990   47.0460   18.7350 C   0  0  0  0  0  2  0  0  0  0  0  0
   20.7040   46.6610   18.8040 C   0  0  0  0  0  2  0  0  0  0  0  0
   21.4560   47.5840   19.7520 N   0  0  0  0  0  4  0  0  0  0  0  0
   22.8890   47.2670   19.8500 C   0  0  0  0  0  1  0  0  0  0  0  0
   20.8340   47.5640   21.1490 C   0  0  0  0  0  2  0  0  0  0  0  0
   19.3240   47.9620   21.0500 C   0  0  0  0  0  2  0  0  0  0  0  0
   21.3740   48.5280   19.3490 H   0  0  0  0  0  0  0  0  0  0  0  0
  1  6  1  0  0  0  0
  2  3  1  0  0  0  0
  2  1  2  0  0  0  0
  3  4  2  0  0  0  0
  4  5  1  0  0  0  0
  5 22  1  0  0  0  0
  6  5  2  0  0  0  0
  7  2  1  0  0  0  0
  8  1  1  0  0  0  0
  8 14  1  0  0  0  0
  9  8  1  0  0  0  0
 10 11  1  0  0  0  0
 11 12  2  0  0  0  0
 13 12  1  0  0  0  0
 14 13  2  0  0  0  0
 15 14  2  0  0  0  0
 15 10  2  0  0  0  0
 16 17  2  0  0  0  0
 16 21  1  0  0  0  0
 17 18  1  0  0  0  0
 18 10  1  0  0  0  0
 18 19  2  0  0  0  0
 20 19  1  0  0  0  0
 21 20  2  0  0  0  0
 22 23  1  0  0  0  0
 22 25  1  0  0  0  0
 23 26  1  0  0  0  0
 24 23  2  0  0  0  0
 26 31  2  0  0  0  0
 26 27  1  0  0  0  0
 27 28  2  0  0  0  0
 28 29  1  0  0  0  0
 29 32  1  0  0  0  0
 30 29  2  0  0  0  0
 31 30  1  0  0  0  0
 32 33  1  0  0  0  0
 33 39  1  0  0  0  0
 34 35  1  0  0  0  0
 34 33  1  0  0  0  0
 35 36  1  0  0  0  0
 36 37  1  0  0  0  0
 36 38  1  0  0  0  0
 39 38  1  0  0  0  0
 40 36  1  0  0  0  0
M  END
>  <minimizedAffinity>
-11.7295008

$$$$
