MODEL   2
REMARK  Name = STI
REMARK  6 active torsions:
REMARK  status: ('A' for Active; 'I' for Inactive)
REMARK    1  A    between atoms: C_1  and  N_27
REMARK    2  A    between atoms: C_5  and  N_8
REMARK    3  A    between atoms: C_9  and  C_12
REMARK    4  A    between atoms: C_15  and  C_18
REMARK    5  A    between atoms: C_18  and  N_19
REMARK    6  A    between atoms: C_29  and  C_37
REMARK                            x       y       z     vdW  Elec       q    Type
REMARK                         _______ _______ _______ _____ _____    ______ ____
ROOT
ATOM      1  C   UNL     1      15.837  54.728  12.402  0.00  0.00    +0.000 A 
ATOM      2  C   UNL     1      16.901  54.580  11.402  0.00  0.00    +0.000 A 
ATOM      3  C   UNL     1      17.891  53.563  11.611  0.00  0.00    +0.000 A 
ATOM      4  C   UNL     1      17.836  52.710  12.772  0.00  0.00    +0.000 A 
ATOM      5  C   UNL     1      16.803  52.849  13.744  0.00  0.00    +0.000 A 
ATOM      6  C   UNL     1      15.797  53.880  13.539  0.00  0.00    +0.000 A 
ATOM      7  C   UNL     1      17.006  55.461  10.135  0.00  0.00    +0.000 C 
ENDROOT
BRANCH   1   8
ATOM      8  N   UNL     1      14.847  55.702  12.256  0.00  0.00    +0.000 N 
ATOM      9  H   UNL     1      13.924  55.437  11.882  0.00  0.00    +0.000 HD
ATOM     10  C   UNL     1      14.259  59.247  12.753  0.00  0.00    +0.000 A 
ATOM     11  C   UNL     1      15.513  59.707  13.278  0.00  0.00    +0.000 A 
ATOM     12  C   UNL     1      16.537  58.748  13.446  0.00  0.00    +0.000 A 
ATOM     13  N   UNL     1      16.313  57.430  13.110  0.00  0.00    +0.000 NA
ATOM     14  C   UNL     1      15.091  57.020  12.607  0.00  0.00    +0.000 A 
ATOM     15  N   UNL     1      14.097  57.916  12.439  0.00  0.00    +0.000 NA
BRANCH  10  18
ATOM     16  C   UNL     1      11.818  62.303  12.818  0.00  0.00    +0.000 A 
ATOM     17  C   UNL     1      12.977  61.481  13.079  0.00  0.00    +0.000 A 
ATOM     18  C   UNL     1      13.082  60.141  12.515  0.00  0.00    +0.000 A 
ATOM     19  C   UNL     1      11.988  59.660  11.685  0.00  0.00    +0.000 A 
ATOM     20  N   UNL     1      10.884  60.474  11.452  0.00  0.00    +0.000 NA
ATOM     21  C   UNL     1      10.771  61.764  11.991  0.00  0.00    +0.000 A 
ENDBRANCH  10  18
ENDBRANCH   1   8
BRANCH   5  22
ATOM     22  N   UNL     1      16.809  51.953  14.874  0.00  0.00    +0.000 N 
ATOM     23  C   UNL     1      15.798  51.740  15.797  0.00  0.00    +0.000 C 
ATOM     24  O   UNL     1      14.809  52.447  15.915  0.00  0.00    +0.000 OA
ATOM     25  H   UNL     1      17.670  51.406  15.012  0.00  0.00    +0.000 HD
BRANCH  23  26
ATOM     26  C   UNL     1      15.909  50.580  16.734  0.00  0.00    +0.000 A 
ATOM     27  C   UNL     1      17.195  49.924  16.981  0.00  0.00    +0.000 A 
ATOM     28  C   UNL     1      17.271  48.797  17.877  0.00  0.00    +0.000 A 
ATOM     29  C   UNL     1      16.056  48.320  18.533  0.00  0.00    +0.000 A 
ATOM     30  C   UNL     1      14.794  48.993  18.273  0.00  0.00    +0.000 A 
ATOM     31  C   UNL     1      14.716  50.097  17.395  0.00  0.00    +0.000 A 
BRANCH  29  32
ATOM     32  C   UNL     1      16.040  47.111  19.487  0.00  0.00    +0.000 C 
BRANCH  32  33
ATOM     33  N   UNL     1      17.292  46.825  20.249  0.00  0.00    +0.000 NA
ATOM     34  C   UNL     1      17.503  47.857  21.330  0.00  0.00    +0.000 C 
ATOM     35  C   UNL     1      18.813  47.589  22.123  0.00  0.00    +0.000 C 
ATOM     36  N   UNL     1      18.808  46.188  22.718  0.00  0.00    +0.000 N 
ATOM     37  C   UNL     1      20.025  45.884  23.486  0.00  0.00    +0.000 C 
ATOM     38  C   UNL     1      18.613  45.129  21.632  0.00  0.00    +0.000 C 
ATOM     39  C   UNL     1      17.286  45.420  20.857  0.00  0.00    +0.000 C 
ATOM     40  H   UNL     1      18.014  46.164  23.373  0.00  0.00    +0.000 HD
ENDBRANCH  32  33
ENDBRANCH  29  32
ENDBRANCH  23  26
ENDBRANCH   5  22
TORSDOF 6
